notebook_tutorials/synthetic_net_opendss/master_sample_98.dss
clear
new circuit.synthetic_net basekv=157.6864406779661 pu=1.0 phases=3
edit Vsource.source bus1=bus_68.1.2.3

!---------------- LINES ----------------

new linecode.LCode_0 nphases=1 rmatrix=[1.001737] xmatrix=[1.329572] units=km
new line.line_0 bus1=bus_0.2 bus2=bus_1.2 linecode=LCode_0 length=1.0 units=km
new linecode.LCode_1 nphases=1 rmatrix=[0.561427] xmatrix=[1.297785] units=km
new line.line_1 bus1=bus_0.2 bus2=bus_2.2 linecode=LCode_1 length=1.0 units=km
new linecode.LCode_2 nphases=1 rmatrix=[0.813671] xmatrix=[1.242115] units=km
new line.line_2 bus1=bus_3.2 bus2=bus_4.2 linecode=LCode_2 length=1.0 units=km
new linecode.LCode_3 nphases=1 rmatrix=[1.047108] xmatrix=[1.331491] units=km
new line.line_3 bus1=bus_2.2 bus2=bus_4.2 linecode=LCode_3 length=1.0 units=km
new linecode.LCode_4 nphases=1 rmatrix=[0.632085] xmatrix=[1.567769] units=km
new line.line_4 bus1=bus_4.2 bus2=bus_5.2 linecode=LCode_4 length=1.0 units=km
new linecode.LCode_5 nphases=1 rmatrix=[0.837467] xmatrix=[1.242115] units=km
new line.line_5 bus1=bus_5.2 bus2=bus_6.2 linecode=LCode_5 length=1.0 units=km
new linecode.LCode_6 nphases=1 rmatrix=[0.968183] xmatrix=[1.269459] units=km
new line.line_6 bus1=bus_7.2 bus2=bus_8.2 linecode=LCode_6 length=1.0 units=km
new linecode.LCode_7 nphases=1 rmatrix=[1.110489] xmatrix=[1.242115] units=km
new line.line_7 bus1=bus_8.2 bus2=bus_9.2 linecode=LCode_7 length=1.0 units=km
new linecode.LCode_8 nphases=1 rmatrix=[0.865873] xmatrix=[1.515765] units=km
new line.line_8 bus1=bus_3.2 bus2=bus_10.2 linecode=LCode_8 length=1.0 units=km
new linecode.LCode_9 nphases=1 rmatrix=[0.752824] xmatrix=[1.337822] units=km
new line.line_9 bus1=bus_4.2 bus2=bus_10.2 linecode=LCode_9 length=1.0 units=km
new linecode.LCode_10 nphases=1 rmatrix=[0.497168] xmatrix=[1.332160] units=km
new line.line_10 bus1=bus_10.2 bus2=bus_11.2 linecode=LCode_10 length=1.0 units=km
new linecode.LCode_11 nphases=1 rmatrix=[0.619437] xmatrix=[1.375985] units=km
new line.line_11 bus1=bus_1.2 bus2=bus_11.2 linecode=LCode_11 length=1.0 units=km
new linecode.LCode_12 nphases=1 rmatrix=[0.969542] xmatrix=[1.334154] units=km
new line.line_12 bus1=bus_2.2 bus2=bus_11.2 linecode=LCode_12 length=1.0 units=km
new linecode.LCode_13 nphases=1 rmatrix=[0.909508] xmatrix=[1.281801] units=km
new line.line_13 bus1=bus_6.2 bus2=bus_11.2 linecode=LCode_13 length=1.0 units=km
new linecode.LCode_14 nphases=1 rmatrix=[0.466482] xmatrix=[1.321052] units=km
new line.line_14 bus1=bus_10.2 bus2=bus_12.2 linecode=LCode_14 length=1.0 units=km
new linecode.LCode_15 nphases=1 rmatrix=[1.116148] xmatrix=[1.537947] units=km
new line.line_15 bus1=bus_11.2 bus2=bus_13.2 linecode=LCode_15 length=1.0 units=km
new linecode.LCode_16 nphases=2 rmatrix=[0.897696 | 0.059160 0.897696] xmatrix=[1.406973 | 1.024695 1.406973] units=km
new line.line_16 bus1=bus_12.2.3 bus2=bus_14.2.3 linecode=LCode_16 length=1.0 units=km
new linecode.LCode_17 nphases=2 rmatrix=[1.107582 | 0.059160 1.107582] xmatrix=[1.242115 | 1.024695 1.242115] units=km
new line.line_17 bus1=bus_13.2.3 bus2=bus_14.2.3 linecode=LCode_17 length=1.0 units=km
new linecode.LCode_18 nphases=1 rmatrix=[0.728201] xmatrix=[1.242115] units=km
new line.line_18 bus1=bus_11.2 bus2=bus_15.2 linecode=LCode_18 length=1.0 units=km
new linecode.LCode_19 nphases=1 rmatrix=[1.343639] xmatrix=[1.289842] units=km
new line.line_19 bus1=bus_14.2 bus2=bus_16.2 linecode=LCode_19 length=1.0 units=km
new linecode.LCode_20 nphases=1 rmatrix=[0.351227] xmatrix=[1.404561] units=km
new line.line_20 bus1=bus_15.2 bus2=bus_16.2 linecode=LCode_20 length=1.0 units=km
new linecode.LCode_21 nphases=1 rmatrix=[0.505819] xmatrix=[1.242115] units=km
new line.line_21 bus1=bus_16.2 bus2=bus_17.2 linecode=LCode_21 length=1.0 units=km
new linecode.LCode_25 nphases=2 rmatrix=[0.850245 | 0.059160 0.850245] xmatrix=[1.466902 | 1.024695 1.466902] units=km
new line.line_25 bus1=bus_19.2.3 bus2=bus_20.2.3 linecode=LCode_25 length=1.0 units=km
new linecode.LCode_26 nphases=2 rmatrix=[0.605110 | 0.059160 0.605110] xmatrix=[1.294373 | 1.024695 1.294373] units=km
new line.line_26 bus1=bus_20.2.3 bus2=bus_21.2.3 linecode=LCode_26 length=1.0 units=km
new linecode.LCode_27 nphases=2 rmatrix=[0.507650 | 0.059160 0.507650] xmatrix=[1.485924 | 1.024695 1.485924] units=km
new line.line_27 bus1=bus_21.2.3 bus2=bus_22.2.3 linecode=LCode_27 length=1.0 units=km
new linecode.LCode_28 nphases=2 rmatrix=[0.855169 | 0.059160 0.855169] xmatrix=[1.313004 | 1.024695 1.313004] units=km
new line.line_28 bus1=bus_22.2.3 bus2=bus_23.2.3 linecode=LCode_28 length=1.0 units=km
new linecode.LCode_29 nphases=2 rmatrix=[0.868215 | 0.059160 0.868215] xmatrix=[1.242115 | 1.024695 1.242115] units=km
new line.line_29 bus1=bus_22.2.3 bus2=bus_24.2.3 linecode=LCode_29 length=1.0 units=km
new linecode.LCode_30 nphases=1 rmatrix=[0.590421] xmatrix=[1.242115] units=km
new line.line_30 bus1=bus_24.3 bus2=bus_26.3 linecode=LCode_30 length=1.0 units=km
new linecode.LCode_31 nphases=1 rmatrix=[0.593075] xmatrix=[1.418808] units=km
new line.line_31 bus1=bus_26.3 bus2=bus_27.3 linecode=LCode_31 length=1.0 units=km
new linecode.LCode_32 nphases=1 rmatrix=[0.553942] xmatrix=[1.253256] units=km
new line.line_32 bus1=bus_27.3 bus2=bus_28.3 linecode=LCode_32 length=1.0 units=km
new linecode.LCode_33 nphases=1 rmatrix=[0.984063] xmatrix=[1.356017] units=km
new line.line_33 bus1=bus_7.2 bus2=bus_29.2 linecode=LCode_33 length=1.0 units=km
new linecode.LCode_34 nphases=1 rmatrix=[0.846288] xmatrix=[1.242115] units=km
new line.line_34 bus1=bus_25.2 bus2=bus_29.2 linecode=LCode_34 length=1.0 units=km
new linecode.LCode_36 nphases=1 rmatrix=[0.801461] xmatrix=[1.242115] units=km
new line.line_36 bus1=bus_28.3 bus2=bus_30.3 linecode=LCode_36 length=1.0 units=km
new linecode.LCode_37 nphases=2 rmatrix=[1.112370 | 0.059160 1.112370] xmatrix=[1.242115 | 1.024695 1.242115] units=km
new line.line_37 bus1=bus_22.2.3 bus2=bus_31.2.3 linecode=LCode_37 length=1.0 units=km
new linecode.LCode_38 nphases=1 rmatrix=[0.962035] xmatrix=[1.242115] units=km
new line.line_38 bus1=bus_30.3 bus2=bus_31.3 linecode=LCode_38 length=1.0 units=km
new linecode.LCode_39 nphases=1 rmatrix=[0.829530] xmatrix=[1.497104] units=km
new line.line_39 bus1=bus_26.3 bus2=bus_31.3 linecode=LCode_39 length=1.0 units=km
new linecode.LCode_40 nphases=2 rmatrix=[0.879754 | 0.059160 0.879754] xmatrix=[1.242115 | 1.024695 1.242115] units=km
new line.line_40 bus1=bus_14.2.3 bus2=bus_32.2.3 linecode=LCode_40 length=1.0 units=km
new linecode.LCode_41 nphases=1 rmatrix=[1.182664] xmatrix=[1.242115] units=km
new line.line_41 bus1=bus_18.1 bus2=bus_33.1 linecode=LCode_41 length=1.0 units=km
new linecode.LCode_42 nphases=2 rmatrix=[0.694747 | 0.059160 0.694747] xmatrix=[1.585030 | 1.024695 1.585030] units=km
new line.line_42 bus1=bus_34.2.3 bus2=bus_35.2.3 linecode=LCode_42 length=1.0 units=km
new linecode.LCode_43 nphases=2 rmatrix=[0.816826 | 0.059160 0.816826] xmatrix=[1.256603 | 1.024695 1.256603] units=km
new line.line_43 bus1=bus_34.2.3 bus2=bus_36.2.3 linecode=LCode_43 length=1.0 units=km
new linecode.LCode_44 nphases=2 rmatrix=[0.597978 | 0.059160 0.597978] xmatrix=[1.288002 | 1.024695 1.288002] units=km
new line.line_44 bus1=bus_32.2.3 bus2=bus_36.2.3 linecode=LCode_44 length=1.0 units=km
new linecode.LCode_47 nphases=2 rmatrix=[0.778700 | 0.059160 0.778700] xmatrix=[1.242115 | 1.024695 1.242115] units=km
new line.line_47 bus1=bus_36.2.3 bus2=bus_38.2.3 linecode=LCode_47 length=1.0 units=km
new linecode.LCode_48 nphases=2 rmatrix=[0.809184 | 0.059160 0.809184] xmatrix=[1.242115 | 1.024695 1.242115] units=km
new line.line_48 bus1=bus_36.2.3 bus2=bus_39.2.3 linecode=LCode_48 length=1.0 units=km
new linecode.LCode_49 nphases=1 rmatrix=[0.667287] xmatrix=[1.424642] units=km
new line.line_49 bus1=bus_29.2 bus2=bus_37.2 linecode=LCode_49 length=1.0 units=km
new linecode.LCode_50 nphases=2 rmatrix=[0.872648 | 0.059160 0.872648] xmatrix=[1.242115 | 1.024695 1.242115] units=km
new line.line_50 bus1=bus_38.2.3 bus2=bus_39.2.3 linecode=LCode_50 length=1.0 units=km
new linecode.LCode_51 nphases=2 rmatrix=[0.270829 | 0.059160 0.270829] xmatrix=[1.242115 | 1.024695 1.242115] units=km
new line.line_51 bus1=bus_39.2.3 bus2=bus_40.2.3 linecode=LCode_51 length=1.0 units=km
new linecode.LCode_52 nphases=2 rmatrix=[0.865308 | 0.059160 0.865308] xmatrix=[1.445985 | 1.024695 1.445985] units=km
new line.line_52 bus1=bus_39.2.3 bus2=bus_41.2.3 linecode=LCode_52 length=1.0 units=km
new linecode.LCode_53 nphases=2 rmatrix=[0.926984 | 0.059160 0.926984] xmatrix=[1.463918 | 1.024695 1.463918] units=km
new line.line_53 bus1=bus_40.2.3 bus2=bus_41.2.3 linecode=LCode_53 length=1.0 units=km
new linecode.LCode_54 nphases=2 rmatrix=[0.703081 | 0.059160 0.703081] xmatrix=[1.418874 | 1.024695 1.418874] units=km
new line.line_54 bus1=bus_42.2.3 bus2=bus_43.2.3 linecode=LCode_54 length=1.0 units=km
new linecode.LCode_56 nphases=2 rmatrix=[1.454592 | 0.059160 1.454592] xmatrix=[1.296738 | 1.024695 1.296738] units=km
new line.line_56 bus1=bus_43.2.3 bus2=bus_44.2.3 linecode=LCode_56 length=1.0 units=km
new linecode.LCode_58 nphases=1 rmatrix=[0.188322] xmatrix=[1.242115] units=km
new line.line_58 bus1=bus_45.1 bus2=bus_46.1 linecode=LCode_58 length=1.0 units=km
new linecode.LCode_61 nphases=2 rmatrix=[0.345371 | 0.059160 0.345371] xmatrix=[1.342775 | 1.024695 1.342775] units=km
new line.line_61 bus1=bus_41.2.3 bus2=bus_48.2.3 linecode=LCode_61 length=1.0 units=km
new linecode.LCode_62 nphases=2 rmatrix=[1.213436 | 0.059160 1.213436] xmatrix=[1.451960 | 1.024695 1.451960] units=km
new line.line_62 bus1=bus_41.2.3 bus2=bus_48.2.3 linecode=LCode_62 length=1.0 units=km
new linecode.LCode_63 nphases=2 rmatrix=[0.279680 | 0.059160 0.279680] xmatrix=[1.242115 | 1.024695 1.242115] units=km
new line.line_63 bus1=bus_44.2.3 bus2=bus_48.2.3 linecode=LCode_63 length=1.0 units=km
new linecode.LCode_64 nphases=2 rmatrix=[1.050136 | 0.059160 1.050136] xmatrix=[1.451478 | 1.024695 1.451478] units=km
new line.line_64 bus1=bus_47.2.3 bus2=bus_48.2.3 linecode=LCode_64 length=1.0 units=km
new linecode.LCode_65 nphases=2 rmatrix=[0.815168 | 0.059160 0.815168] xmatrix=[1.574094 | 1.024695 1.574094] units=km
new line.line_65 bus1=bus_48.2.3 bus2=bus_49.2.3 linecode=LCode_65 length=1.0 units=km
new linecode.LCode_66 nphases=2 rmatrix=[0.267220 | 0.059160 0.267220] xmatrix=[1.340429 | 1.024695 1.340429] units=km
new line.line_66 bus1=bus_48.2.3 bus2=bus_50.2.3 linecode=LCode_66 length=1.0 units=km
new linecode.LCode_67 nphases=2 rmatrix=[0.466943 | 0.059160 0.466943] xmatrix=[1.242115 | 1.024695 1.242115] units=km
new line.line_67 bus1=bus_50.2.3 bus2=bus_51.2.3 linecode=LCode_67 length=1.0 units=km
new linecode.LCode_68 nphases=2 rmatrix=[0.843233 | 0.059160 0.843233] xmatrix=[1.312676 | 1.024695 1.312676] units=km
new line.line_68 bus1=bus_51.2.3 bus2=bus_52.2.3 linecode=LCode_68 length=1.0 units=km
new linecode.LCode_69 nphases=2 rmatrix=[0.998305 | 0.059160 0.998305] xmatrix=[1.366711 | 1.024695 1.366711] units=km
new line.line_69 bus1=bus_52.2.3 bus2=bus_53.2.3 linecode=LCode_69 length=1.0 units=km
new linecode.LCode_70 nphases=2 rmatrix=[0.249732 | 0.059160 0.249732] xmatrix=[1.242115 | 1.024695 1.242115] units=km
new line.line_70 bus1=bus_48.2.3 bus2=bus_53.2.3 linecode=LCode_70 length=1.0 units=km
new linecode.LCode_71 nphases=2 rmatrix=[0.768296 | 0.059160 0.768296] xmatrix=[1.384518 | 1.024695 1.384518] units=km
new line.line_71 bus1=bus_48.2.3 bus2=bus_53.2.3 linecode=LCode_71 length=1.0 units=km
new linecode.LCode_73 nphases=2 rmatrix=[0.555205 | 0.059160 0.555205] xmatrix=[1.524012 | 1.024695 1.524012] units=km
new line.line_73 bus1=bus_53.2.3 bus2=bus_55.2.3 linecode=LCode_73 length=1.0 units=km
new linecode.LCode_75 nphases=2 rmatrix=[0.705546 | 0.059160 0.705546] xmatrix=[1.404336 | 1.024695 1.404336] units=km
new line.line_75 bus1=bus_55.2.3 bus2=bus_56.2.3 linecode=LCode_75 length=1.0 units=km
new linecode.LCode_76 nphases=2 rmatrix=[0.760973 | 0.059160 0.760973] xmatrix=[1.408354 | 1.024695 1.408354] units=km
new line.line_76 bus1=bus_49.2.3 bus2=bus_56.2.3 linecode=LCode_76 length=1.0 units=km
new linecode.LCode_77 nphases=2 rmatrix=[0.444207 | 0.059160 0.444207] xmatrix=[1.242115 | 1.024695 1.242115] units=km
new line.line_77 bus1=bus_55.2.3 bus2=bus_57.2.3 linecode=LCode_77 length=1.0 units=km
new linecode.LCode_78 nphases=2 rmatrix=[0.171845 | 0.059160 0.171845] xmatrix=[1.373190 | 1.024695 1.373190] units=km
new line.line_78 bus1=bus_50.2.3 bus2=bus_57.2.3 linecode=LCode_78 length=1.0 units=km
new linecode.LCode_79 nphases=1 rmatrix=[0.240923] xmatrix=[1.242115] units=km
new line.line_79 bus1=bus_53.3 bus2=bus_58.3 linecode=LCode_79 length=1.0 units=km
new linecode.LCode_80 nphases=1 rmatrix=[1.086702] xmatrix=[1.550376] units=km
new line.line_80 bus1=bus_55.3 bus2=bus_58.3 linecode=LCode_80 length=1.0 units=km
new linecode.LCode_81 nphases=1 rmatrix=[0.658953] xmatrix=[1.242115] units=km
new line.line_81 bus1=bus_55.3 bus2=bus_58.3 linecode=LCode_81 length=1.0 units=km
new linecode.LCode_83 nphases=1 rmatrix=[0.600179] xmatrix=[1.507705] units=km
new line.line_83 bus1=bus_58.3 bus2=bus_59.3 linecode=LCode_83 length=1.0 units=km
new linecode.LCode_84 nphases=1 rmatrix=[0.581887] xmatrix=[1.374819] units=km
new line.line_84 bus1=bus_58.3 bus2=bus_60.3 linecode=LCode_84 length=1.0 units=km
new linecode.LCode_85 nphases=1 rmatrix=[0.680125] xmatrix=[1.248030] units=km
new line.line_85 bus1=bus_59.3 bus2=bus_60.3 linecode=LCode_85 length=1.0 units=km
new linecode.LCode_88 nphases=1 rmatrix=[0.865410] xmatrix=[1.272458] units=km
new line.line_88 bus1=bus_62.2 bus2=bus_63.2 linecode=LCode_88 length=1.0 units=km
new linecode.LCode_89 nphases=1 rmatrix=[0.674529] xmatrix=[1.304024] units=km
new line.line_89 bus1=bus_37.2 bus2=bus_64.2 linecode=LCode_89 length=1.0 units=km
new linecode.LCode_90 nphases=1 rmatrix=[1.176161] xmatrix=[1.242115] units=km
new line.line_90 bus1=bus_63.2 bus2=bus_64.2 linecode=LCode_90 length=1.0 units=km
new linecode.LCode_91 nphases=2 rmatrix=[0.784366 | 0.059160 0.784366] xmatrix=[1.299936 | 1.024695 1.299936] units=km
new line.line_91 bus1=bus_48.2.3 bus2=bus_65.2.3 linecode=LCode_91 length=1.0 units=km
new linecode.LCode_92 nphases=2 rmatrix=[0.159161 | 0.059160 0.159161] xmatrix=[1.418752 | 1.024695 1.418752] units=km
new line.line_92 bus1=bus_48.2.3 bus2=bus_65.2.3 linecode=LCode_92 length=1.0 units=km
new linecode.LCode_95 nphases=2 rmatrix=[0.188677 | 0.059160 0.188677] xmatrix=[1.487732 | 1.024695 1.487732] units=km
new line.line_95 bus1=bus_65.2.3 bus2=bus_66.2.3 linecode=LCode_95 length=1.0 units=km
new linecode.LCode_96 nphases=1 rmatrix=[0.809575] xmatrix=[1.242115] units=km
new line.line_96 bus1=bus_46.1 bus2=bus_68.1 linecode=LCode_96 length=1.0 units=km
new linecode.LCode_97 nphases=2 rmatrix=[0.642425 | 0.059160 0.642425] xmatrix=[1.242115 | 1.024695 1.242115] units=km
new line.line_97 bus1=bus_48.2.3 bus2=bus_68.2.3 linecode=LCode_97 length=1.0 units=km
new linecode.LCode_98 nphases=2 rmatrix=[1.055117 | 0.059160 1.055117] xmatrix=[1.342902 | 1.024695 1.342902] units=km
new line.line_98 bus1=bus_68.2.3 bus2=bus_69.2.3 linecode=LCode_98 length=1.0 units=km
new linecode.LCode_99 nphases=2 rmatrix=[0.421155 | 0.059160 0.421155] xmatrix=[1.255289 | 1.024695 1.255289] units=km
new line.line_99 bus1=bus_23.2.3 bus2=bus_69.2.3 linecode=LCode_99 length=1.0 units=km
new linecode.LCode_100 nphases=2 rmatrix=[0.804762 | 0.059160 0.804762] xmatrix=[1.429698 | 1.024695 1.429698] units=km
new line.line_100 bus1=bus_69.2.3 bus2=bus_70.2.3 linecode=LCode_100 length=1.0 units=km
new linecode.LCode_101 nphases=2 rmatrix=[0.172939 | 0.059160 0.172939] xmatrix=[1.242115 | 1.024695 1.242115] units=km
new line.line_101 bus1=bus_23.2.3 bus2=bus_71.2.3 linecode=LCode_101 length=1.0 units=km
new linecode.LCode_102 nphases=2 rmatrix=[0.220014 | 0.059160 0.220014] xmatrix=[1.256252 | 1.024695 1.256252] units=km
new line.line_102 bus1=bus_70.2.3 bus2=bus_71.2.3 linecode=LCode_102 length=1.0 units=km
new linecode.LCode_103 nphases=2 rmatrix=[0.312863 | 0.059160 0.312863] xmatrix=[1.289738 | 1.024695 1.289738] units=km
new line.line_103 bus1=bus_70.2.3 bus2=bus_72.2.3 linecode=LCode_103 length=1.0 units=km
new linecode.LCode_104 nphases=2 rmatrix=[0.647839 | 0.059160 0.647839] xmatrix=[1.242115 | 1.024695 1.242115] units=km
new line.line_104 bus1=bus_69.2.3 bus2=bus_73.2.3 linecode=LCode_104 length=1.0 units=km
new linecode.LCode_105 nphases=1 rmatrix=[1.249821] xmatrix=[1.242115] units=km
new line.line_105 bus1=bus_69.3 bus2=bus_74.3 linecode=LCode_105 length=1.0 units=km
new linecode.LCode_106 nphases=2 rmatrix=[0.262286 | 0.059160 0.262286] xmatrix=[1.270688 | 0.940589 1.270688] units=km
new line.line_106 bus1=bus_68.1.3 bus2=bus_74.1.3 linecode=LCode_106 length=1.0 units=km
new linecode.LCode_107 nphases=1 rmatrix=[0.795187] xmatrix=[1.242115] units=km
new line.line_107 bus1=bus_73.3 bus2=bus_74.3 linecode=LCode_107 length=1.0 units=km
new linecode.LCode_108 nphases=2 rmatrix=[0.945690 | 0.059160 0.945690] xmatrix=[1.382587 | 0.940589 1.382587] units=km
new line.line_108 bus1=bus_75.1.3 bus2=bus_76.1.3 linecode=LCode_108 length=1.0 units=km
new linecode.LCode_109 nphases=2 rmatrix=[0.311691 | 0.059160 0.311691] xmatrix=[1.242115 | 0.940589 1.242115] units=km
new line.line_109 bus1=bus_68.1.3 bus2=bus_76.1.3 linecode=LCode_109 length=1.0 units=km
new linecode.LCode_110 nphases=2 rmatrix=[0.952583 | 0.059160 0.952583] xmatrix=[1.507918 | 0.940589 1.507918] units=km
new line.line_110 bus1=bus_74.1.3 bus2=bus_76.1.3 linecode=LCode_110 length=1.0 units=km
new linecode.LCode_111 nphases=2 rmatrix=[0.721265 | 0.059160 0.721265] xmatrix=[1.283093 | 0.940589 1.283093] units=km
new line.line_111 bus1=bus_76.1.3 bus2=bus_77.1.3 linecode=LCode_111 length=1.0 units=km
new linecode.LCode_112 nphases=2 rmatrix=[0.618834 | 0.059160 0.618834] xmatrix=[1.242115 | 0.940589 1.242115] units=km
new line.line_112 bus1=bus_77.1.3 bus2=bus_78.1.3 linecode=LCode_112 length=1.0 units=km
new linecode.LCode_113 nphases=2 rmatrix=[0.393687 | 0.059160 0.393687] xmatrix=[1.242115 | 0.940589 1.242115] units=km
new line.line_113 bus1=bus_76.1.3 bus2=bus_79.1.3 linecode=LCode_113 length=1.0 units=km
new linecode.LCode_114 nphases=2 rmatrix=[0.347161 | 0.059160 0.347161] xmatrix=[1.301018 | 0.940589 1.301018] units=km
new line.line_114 bus1=bus_76.1.3 bus2=bus_79.1.3 linecode=LCode_114 length=1.0 units=km
new linecode.LCode_115 nphases=2 rmatrix=[0.565899 | 0.059160 0.565899] xmatrix=[1.242115 | 0.940589 1.242115] units=km
new line.line_115 bus1=bus_78.1.3 bus2=bus_79.1.3 linecode=LCode_115 length=1.0 units=km
new linecode.LCode_116 nphases=2 rmatrix=[0.396986 | 0.059160 0.396986] xmatrix=[1.439236 | 0.940589 1.439236] units=km
new line.line_116 bus1=bus_76.1.3 bus2=bus_81.1.3 linecode=LCode_116 length=1.0 units=km
new linecode.LCode_118 nphases=1 rmatrix=[0.936595] xmatrix=[1.320442] units=km
new line.line_118 bus1=bus_82.2 bus2=bus_83.2 linecode=LCode_118 length=1.0 units=km
new linecode.LCode_119 nphases=1 rmatrix=[1.158117] xmatrix=[1.303723] units=km
new line.line_119 bus1=bus_82.2 bus2=bus_84.2 linecode=LCode_119 length=1.0 units=km
new linecode.LCode_120 nphases=1 rmatrix=[0.380673] xmatrix=[1.315856] units=km
new line.line_120 bus1=bus_83.2 bus2=bus_84.2 linecode=LCode_120 length=1.0 units=km
new linecode.LCode_121 nphases=1 rmatrix=[1.424671] xmatrix=[1.242115] units=km
new line.line_121 bus1=bus_84.2 bus2=bus_85.2 linecode=LCode_121 length=1.0 units=km
new linecode.LCode_122 nphases=1 rmatrix=[0.753321] xmatrix=[1.464871] units=km
new line.line_122 bus1=bus_84.2 bus2=bus_87.2 linecode=LCode_122 length=1.0 units=km
new linecode.LCode_123 nphases=1 rmatrix=[1.010916] xmatrix=[1.288271] units=km
new line.line_123 bus1=bus_84.2 bus2=bus_88.2 linecode=LCode_123 length=1.0 units=km
new linecode.LCode_124 nphases=1 rmatrix=[0.464664] xmatrix=[1.342715] units=km
new line.line_124 bus1=bus_87.2 bus2=bus_88.2 linecode=LCode_124 length=1.0 units=km
new linecode.LCode_125 nphases=1 rmatrix=[0.788136] xmatrix=[1.446413] units=km
new line.line_125 bus1=bus_88.2 bus2=bus_89.2 linecode=LCode_125 length=1.0 units=km
new linecode.LCode_126 nphases=1 rmatrix=[0.495147] xmatrix=[1.581178] units=km
new line.line_126 bus1=bus_88.2 bus2=bus_89.2 linecode=LCode_126 length=1.0 units=km
new linecode.LCode_127 nphases=1 rmatrix=[1.152787] xmatrix=[1.258559] units=km
new line.line_127 bus1=bus_89.2 bus2=bus_90.2 linecode=LCode_127 length=1.0 units=km
new linecode.LCode_128 nphases=1 rmatrix=[0.936646] xmatrix=[1.296679] units=km
new line.line_128 bus1=bus_88.2 bus2=bus_91.2 linecode=LCode_128 length=1.0 units=km
new linecode.LCode_129 nphases=1 rmatrix=[0.854025] xmatrix=[1.277020] units=km
new line.line_129 bus1=bus_88.2 bus2=bus_91.2 linecode=LCode_129 length=1.0 units=km
new linecode.LCode_130 nphases=1 rmatrix=[0.661560] xmatrix=[1.386134] units=km
new line.line_130 bus1=bus_90.2 bus2=bus_91.2 linecode=LCode_130 length=1.0 units=km
new linecode.LCode_131 nphases=1 rmatrix=[0.988751] xmatrix=[1.242115] units=km
new line.line_131 bus1=bus_91.2 bus2=bus_92.2 linecode=LCode_131 length=1.0 units=km
new linecode.LCode_132 nphases=1 rmatrix=[0.483274] xmatrix=[1.242115] units=km
new line.line_132 bus1=bus_91.2 bus2=bus_93.2 linecode=LCode_132 length=1.0 units=km
new linecode.LCode_133 nphases=1 rmatrix=[0.840162] xmatrix=[1.268973] units=km
new line.line_133 bus1=bus_92.2 bus2=bus_93.2 linecode=LCode_133 length=1.0 units=km
new linecode.LCode_135 nphases=2 rmatrix=[0.273050 | 0.059160 0.273050] xmatrix=[1.245428 | 0.940589 1.245428] units=km
new line.line_135 bus1=bus_79.1.3 bus2=bus_95.1.3 linecode=LCode_135 length=1.0 units=km
new linecode.LCode_136 nphases=2 rmatrix=[0.650202 | 0.059160 0.650202] xmatrix=[1.243390 | 0.940589 1.243390] units=km
new line.line_136 bus1=bus_81.1.3 bus2=bus_95.1.3 linecode=LCode_136 length=1.0 units=km
new linecode.LCode_138 nphases=2 rmatrix=[0.800928 | 0.059160 0.800928] xmatrix=[1.896767 | 0.940589 1.896767] units=km
new line.line_138 bus1=bus_79.1.3 bus2=bus_96.1.3 linecode=LCode_138 length=1.0 units=km
new linecode.LCode_139 nphases=2 rmatrix=[0.660800 | 0.059160 0.660800] xmatrix=[1.292733 | 0.940589 1.292733] units=km
new line.line_139 bus1=bus_79.1.3 bus2=bus_97.1.3 linecode=LCode_139 length=1.0 units=km
new linecode.LCode_140 nphases=2 rmatrix=[0.496851 | 0.059160 0.496851] xmatrix=[1.417808 | 0.940589 1.417808] units=km
new line.line_140 bus1=bus_79.1.3 bus2=bus_98.1.3 linecode=LCode_140 length=1.0 units=km
new linecode.LCode_143 nphases=2 rmatrix=[0.687182 | 0.059160 0.687182] xmatrix=[1.242115 | 0.940589 1.242115] units=km
new line.line_143 bus1=bus_94.1.3 bus2=bus_95.1.3 linecode=LCode_143 length=1.0 units=km
new linecode.LCode_144 nphases=2 rmatrix=[0.269418 | 0.059160 0.269418] xmatrix=[1.242115 | 0.940589 1.242115] units=km
new line.line_144 bus1=bus_95.1.3 bus2=bus_96.1.3 linecode=LCode_144 length=1.0 units=km
new linecode.LCode_145 nphases=2 rmatrix=[1.171096 | 0.059160 1.171096] xmatrix=[1.242115 | 0.940589 1.242115] units=km
new line.line_145 bus1=bus_97.1.3 bus2=bus_99.1.3 linecode=LCode_145 length=1.0 units=km
new linecode.LCode_146 nphases=2 rmatrix=[0.729195 | 0.059160 0.729195] xmatrix=[1.267575 | 0.940589 1.267575] units=km
new line.line_146 bus1=bus_98.1.3 bus2=bus_99.1.3 linecode=LCode_146 length=1.0 units=km
new linecode.LCode_147 nphases=2 rmatrix=[0.672196 | 0.059160 0.672196] xmatrix=[1.976962 | 0.940589 1.976962] units=km
new line.line_147 bus1=bus_99.1.3 bus2=bus_100.1.3 linecode=LCode_147 length=1.0 units=km
new linecode.LCode_148 nphases=1 rmatrix=[0.918909] xmatrix=[1.275075] units=km
new line.line_148 bus1=bus_91.2 bus2=bus_101.2 linecode=LCode_148 length=1.0 units=km
new linecode.LCode_150 nphases=1 rmatrix=[1.390061] xmatrix=[1.455599] units=km
new line.line_150 bus1=bus_99.3 bus2=bus_102.3 linecode=LCode_150 length=1.0 units=km
new linecode.LCode_151 nphases=2 rmatrix=[0.558468 | 0.059160 0.558468] xmatrix=[1.478418 | 0.940589 1.478418] units=km
new line.line_151 bus1=bus_99.1.3 bus2=bus_103.1.3 linecode=LCode_151 length=1.0 units=km
new linecode.LCode_152 nphases=1 rmatrix=[0.856664] xmatrix=[1.379910] units=km
new line.line_152 bus1=bus_102.3 bus2=bus_103.3 linecode=LCode_152 length=1.0 units=km
new linecode.LCode_153 nphases=1 rmatrix=[0.347098] xmatrix=[1.497552] units=km
new line.line_153 bus1=bus_102.3 bus2=bus_104.3 linecode=LCode_153 length=1.0 units=km
new linecode.LCode_155 nphases=1 rmatrix=[1.390623] xmatrix=[1.272306] units=km
new line.line_155 bus1=bus_103.3 bus2=bus_104.3 linecode=LCode_155 length=1.0 units=km
new linecode.LCode_158 nphases=1 rmatrix=[0.776886] xmatrix=[1.242115] units=km
new line.line_158 bus1=bus_104.3 bus2=bus_107.3 linecode=LCode_158 length=1.0 units=km
new linecode.LCode_159 nphases=1 rmatrix=[1.238521] xmatrix=[1.372200] units=km
new line.line_159 bus1=bus_105.2 bus2=bus_106.2 linecode=LCode_159 length=1.0 units=km
new linecode.LCode_160 nphases=1 rmatrix=[1.569327] xmatrix=[1.392977] units=km
new line.line_160 bus1=bus_107.3 bus2=bus_108.3 linecode=LCode_160 length=1.0 units=km
new linecode.LCode_161 nphases=1 rmatrix=[0.260148] xmatrix=[1.345347] units=km
new line.line_161 bus1=bus_102.3 bus2=bus_109.3 linecode=LCode_161 length=1.0 units=km
new linecode.LCode_162 nphases=1 rmatrix=[0.661020] xmatrix=[1.396919] units=km
new line.line_162 bus1=bus_108.3 bus2=bus_109.3 linecode=LCode_162 length=1.0 units=km
new linecode.LCode_163 nphases=1 rmatrix=[0.544147] xmatrix=[1.373114] units=km
new line.line_163 bus1=bus_109.3 bus2=bus_110.3 linecode=LCode_163 length=1.0 units=km
new linecode.LCode_164 nphases=1 rmatrix=[1.003633] xmatrix=[1.242115] units=km
new line.line_164 bus1=bus_109.3 bus2=bus_111.3 linecode=LCode_164 length=1.0 units=km
new linecode.LCode_165 nphases=1 rmatrix=[0.817089] xmatrix=[1.242115] units=km
new line.line_165 bus1=bus_16.2 bus2=bus_112.2 linecode=LCode_165 length=1.0 units=km
new linecode.LCode_166 nphases=2 rmatrix=[0.765115 | 0.059160 0.765115] xmatrix=[1.242115 | 1.024695 1.242115] units=km
new line.line_166 bus1=bus_31.2.3 bus2=bus_112.2.3 linecode=LCode_166 length=1.0 units=km
new linecode.LCode_167 nphases=2 rmatrix=[0.344466 | 0.059160 0.344466] xmatrix=[1.281682 | 1.024695 1.281682] units=km
new line.line_167 bus1=bus_31.2.3 bus2=bus_113.2.3 linecode=LCode_167 length=1.0 units=km
new linecode.LCode_168 nphases=1 rmatrix=[1.054161] xmatrix=[1.586467] units=km
new line.line_168 bus1=bus_26.3 bus2=bus_114.3 linecode=LCode_168 length=1.0 units=km
new linecode.LCode_169 nphases=1 rmatrix=[0.318630] xmatrix=[1.242115] units=km
new line.line_169 bus1=bus_113.3 bus2=bus_114.3 linecode=LCode_169 length=1.0 units=km
new linecode.LCode_170 nphases=1 rmatrix=[1.058397] xmatrix=[1.359987] units=km
new line.line_170 bus1=bus_11.2 bus2=bus_116.2 linecode=LCode_170 length=1.0 units=km
new linecode.LCode_171 nphases=2 rmatrix=[0.372726 | 0.059160 0.372726] xmatrix=[1.801623 | 0.940589 1.801623] units=km
new line.line_171 bus1=bus_74.1.3 bus2=bus_117.1.3 linecode=LCode_171 length=1.0 units=km
new linecode.LCode_172 nphases=2 rmatrix=[0.449607 | 0.059160 0.449607] xmatrix=[1.328012 | 0.940589 1.328012] units=km
new line.line_172 bus1=bus_75.1.3 bus2=bus_117.1.3 linecode=LCode_172 length=1.0 units=km

!---------------- LOADS ----------------

new load.load_0_B bus1=bus_0.2 Phases=1 kv=157.6864406779661 kw=2011.8808419529792 kvar=659.8969161605772 vminpu=0.85
new load.load_1_B bus1=bus_1.2 Phases=1 kv=157.6864406779661 kw=2686.3178941129595 kvar=881.1122692690508 vminpu=0.85
new load.load_2_B bus1=bus_2.2 Phases=1 kv=157.6864406779661 kw=2128.802793295516 kvar=698.2473162009293 vminpu=0.85
new load.load_3_B bus1=bus_3.2 Phases=1 kv=157.6864406779661 kw=1885.1141591878736 kvar=618.3174442136226 vminpu=0.85
new load.load_4_B bus1=bus_4.2 Phases=1 kv=157.6864406779661 kw=1717.9542875707486 kvar=563.4890063232056 vminpu=0.85
new load.load_5_B bus1=bus_5.2 Phases=1 kv=157.6864406779661 kw=2119.1501659557707 kvar=695.0812544334929 vminpu=0.85
new load.load_6_B bus1=bus_6.2 Phases=1 kv=157.6864406779661 kw=1990.457243591608 kvar=652.8699758980474 vminpu=0.85
new load.load_7_B bus1=bus_7.2 Phases=1 kv=157.6864406779661 kw=2444.798135552683 kvar=801.8937884612801 vminpu=0.85
new load.load_8_B bus1=bus_8.2 Phases=1 kv=157.6864406779661 kw=1842.5482060206448 kvar=604.3558115747716 vminpu=0.85
new load.load_9_B bus1=bus_9.2 Phases=1 kv=157.6864406779661 kw=2035.78071951074 kvar=667.7360759995228 vminpu=0.85
new load.load_10_B bus1=bus_10.2 Phases=1 kv=157.6864406779661 kw=1939.4209703667568 kvar=636.1300782802963 vminpu=0.85
new load.load_11_B bus1=bus_11.2 Phases=1 kv=157.6864406779661 kw=1295.3493228729797 kvar=424.87457790233736 vminpu=0.85
new load.load_12_B bus1=bus_12.2 Phases=1 kv=157.6864406779661 kw=2018.1967130681933 kvar=661.9685218863674 vminpu=0.85
new load.load_12_C bus1=bus_12.3 Phases=1 kv=157.6864406779661 kw=1073.941441679437 kvar=352.2527928708554 vminpu=0.85
new load.load_13_B bus1=bus_13.2 Phases=1 kv=157.6864406779661 kw=145.9936449782624 kvar=47.885915552870074 vminpu=0.85
new load.load_13_C bus1=bus_13.3 Phases=1 kv=157.6864406779661 kw=1728.6309689387372 kvar=566.9909578119058 vminpu=0.85
new load.load_14_B bus1=bus_14.2 Phases=1 kv=157.6864406779661 kw=145.4784169133868 kvar=47.716920747590876 vminpu=0.85
new load.load_14_C bus1=bus_14.3 Phases=1 kv=157.6864406779661 kw=2484.6535106768083 kvar=814.9663515019931 vminpu=0.85
new load.load_15_B bus1=bus_15.2 Phases=1 kv=157.6864406779661 kw=1680.752533532098 kvar=551.2868309985281 vminpu=0.85
new load.load_16_B bus1=bus_16.2 Phases=1 kv=157.6864406779661 kw=1943.7950053400916 kvar=637.5647617515501 vminpu=0.85
new load.load_17_B bus1=bus_17.2 Phases=1 kv=157.6864406779661 kw=1883.3502872293 kvar=617.7388942112104 vminpu=0.85
new load.load_18_A bus1=bus_18.1 Phases=1 kv=157.6864406779661 kw=2663.291565957307 kvar=873.5596336339967 vminpu=0.85
new load.load_19_B bus1=bus_19.2 Phases=1 kv=157.6864406779661 kw=1708.2441522357765 kvar=560.3040819333347 vminpu=0.85
new load.load_19_C bus1=bus_19.3 Phases=1 kv=157.6864406779661 kw=108.1606313823814 kvar=35.4766870934211 vminpu=0.85
new load.load_20_B bus1=bus_20.2 Phases=1 kv=157.6864406779661 kw=1441.1027243454794 kvar=472.68169358531725 vminpu=0.85
new load.load_20_C bus1=bus_20.3 Phases=1 kv=157.6864406779661 kw=831.127529082154 kvar=272.6098295389465 vminpu=0.85
new load.load_21_B bus1=bus_21.2 Phases=1 kv=157.6864406779661 kw=1963.2628953222215 kvar=643.9502296656887 vminpu=0.85
new load.load_21_C bus1=bus_21.3 Phases=1 kv=157.6864406779661 kw=150.05361576898397 kvar=49.21758597222674 vminpu=0.85
new load.load_22_B bus1=bus_22.2 Phases=1 kv=157.6864406779661 kw=54.97905311610933 kvar=18.03312942208386 vminpu=0.85
new load.load_22_C bus1=bus_22.3 Phases=1 kv=157.6864406779661 kw=1823.3985747910824 kvar=598.0747325314751 vminpu=0.85
new load.load_23_B bus1=bus_23.2 Phases=1 kv=157.6864406779661 kw=844.1888307485714 kvar=276.8939364855314 vminpu=0.85
new load.load_23_C bus1=bus_23.3 Phases=1 kv=157.6864406779661 kw=973.9087947599032 kvar=319.4420846812483 vminpu=0.85
new load.load_24_B bus1=bus_24.2 Phases=1 kv=157.6864406779661 kw=2305.638417226712 kvar=756.2494008503617 vminpu=0.85
new load.load_24_C bus1=bus_24.3 Phases=1 kv=157.6864406779661 kw=314.5558560007242 kvar=103.17432076823754 vminpu=0.85
new load.load_25_B bus1=bus_25.2 Phases=1 kv=157.6864406779661 kw=210.16512480086203 kvar=68.93416093468275 vminpu=0.85
new load.load_25_C bus1=bus_25.3 Phases=1 kv=157.6864406779661 kw=1894.2354240173825 kvar=621.3092190777015 vminpu=0.85
new load.load_26_C bus1=bus_26.3 Phases=1 kv=157.6864406779661 kw=2288.070349087111 kvar=750.4870745005725 vminpu=0.85
new load.load_27_C bus1=bus_27.3 Phases=1 kv=157.6864406779661 kw=1934.6262487976871 kvar=634.5574096056414 vminpu=0.85
new load.load_28_C bus1=bus_28.3 Phases=1 kv=157.6864406779661 kw=2001.1277502832736 kvar=656.3699020929138 vminpu=0.85
new load.load_29_B bus1=bus_29.2 Phases=1 kv=157.6864406779661 kw=2293.074511861228 kvar=752.1284398904828 vminpu=0.85
new load.load_30_C bus1=bus_30.3 Phases=1 kv=157.6864406779661 kw=1975.8950257306333 kvar=648.0935684396477 vminpu=0.85
new load.load_31_B bus1=bus_31.2 Phases=1 kv=157.6864406779661 kw=50.8324225940838 kvar=16.67303461085949 vminpu=0.85
new load.load_31_C bus1=bus_31.3 Phases=1 kv=157.6864406779661 kw=1499.0431777256308 kvar=491.6861622940069 vminpu=0.85
new load.load_32_B bus1=bus_32.2 Phases=1 kv=157.6864406779661 kw=1481.4324746251402 kvar=485.909851677046 vminpu=0.85
new load.load_32_C bus1=bus_32.3 Phases=1 kv=157.6864406779661 kw=1205.830601170121 kvar=395.51243718379976 vminpu=0.85
new load.load_33_A bus1=bus_33.1 Phases=1 kv=157.6864406779661 kw=1884.146658515488 kvar=618.0001039930801 vminpu=0.85
new load.load_34_B bus1=bus_34.2 Phases=1 kv=157.6864406779661 kw=2098.15960040383 kvar=688.1963489324563 vminpu=0.85
new load.load_34_C bus1=bus_34.3 Phases=1 kv=157.6864406779661 kw=418.4657977671857 kvar=137.25678166763691 vminpu=0.85
new load.load_35_B bus1=bus_35.2 Phases=1 kv=157.6864406779661 kw=547.6211322506939 kvar=179.6197313782276 vminpu=0.85
new load.load_35_C bus1=bus_35.3 Phases=1 kv=157.6864406779661 kw=1296.169353898958 kvar=425.14354807885826 vminpu=0.85
new load.load_36_B bus1=bus_36.2 Phases=1 kv=157.6864406779661 kw=1032.4997413834246 kvar=338.6599151737633 vminpu=0.85
new load.load_36_C bus1=bus_36.3 Phases=1 kv=157.6864406779661 kw=1269.8918422083336 kvar=416.52452424433346 vminpu=0.85
new load.load_37_B bus1=bus_37.2 Phases=1 kv=157.6864406779661 kw=1492.836517645093 kvar=489.6503777875905 vminpu=0.85
new load.load_38_B bus1=bus_38.2 Phases=1 kv=157.6864406779661 kw=1462.6001588368251 kvar=479.73285209847865 vminpu=0.85
new load.load_38_C bus1=bus_38.3 Phases=1 kv=157.6864406779661 kw=382.5669940983298 kvar=125.48197406425219 vminpu=0.85
new load.load_39_B bus1=bus_39.2 Phases=1 kv=157.6864406779661 kw=331.11554048418304 kvar=108.60589727881204 vminpu=0.85
new load.load_39_C bus1=bus_39.3 Phases=1 kv=157.6864406779661 kw=1506.8249067654488 kvar=494.23856941906723 vminpu=0.85
new load.load_40_B bus1=bus_40.2 Phases=1 kv=157.6864406779661 kw=1168.0138723182824 kvar=383.10855012039667 vminpu=0.85
new load.load_40_C bus1=bus_40.3 Phases=1 kv=157.6864406779661 kw=824.8243045606197 kvar=270.54237189588326 vminpu=0.85
new load.load_41_B bus1=bus_41.2 Phases=1 kv=157.6864406779661 kw=1270.4303247156272 kvar=416.70114650672576 vminpu=0.85
new load.load_41_C bus1=bus_41.3 Phases=1 kv=157.6864406779661 kw=1094.5998144025857 kvar=359.0287391240481 vminpu=0.85
new load.load_42_B bus1=bus_42.2 Phases=1 kv=157.6864406779661 kw=1144.0426990327533 kvar=375.2460052827431 vminpu=0.85
new load.load_42_C bus1=bus_42.3 Phases=1 kv=157.6864406779661 kw=173.8217860602251 kvar=57.01354582775383 vminpu=0.85
new load.load_43_B bus1=bus_43.2 Phases=1 kv=157.6864406779661 kw=2277.351410959077 kvar=746.9712627945772 vminpu=0.85
new load.load_43_C bus1=bus_43.3 Phases=1 kv=157.6864406779661 kw=280.26473115894925 kvar=91.92683182013536 vminpu=0.85
new load.load_44_B bus1=bus_44.2 Phases=1 kv=157.6864406779661 kw=1835.9956098654648 kvar=602.2065600358725 vminpu=0.85
new load.load_44_C bus1=bus_44.3 Phases=1 kv=157.6864406779661 kw=122.0751904846601 kvar=40.040662478968514 vminpu=0.85
new load.load_45_A bus1=bus_45.1 Phases=1 kv=157.6864406779661 kw=1674.7646242837209 kvar=549.3227967650605 vminpu=0.85
new load.load_46_A bus1=bus_46.1 Phases=1 kv=157.6864406779661 kw=2090.276784131921 kvar=685.6107851952701 vminpu=0.85
new load.load_47_B bus1=bus_47.2 Phases=1 kv=157.6864406779661 kw=588.5364884522647 kvar=193.03996821234284 vminpu=0.85
new load.load_47_C bus1=bus_47.3 Phases=1 kv=157.6864406779661 kw=1047.578994577338 kvar=343.6059102213669 vminpu=0.85
new load.load_48_B bus1=bus_48.2 Phases=1 kv=157.6864406779661 kw=542.018776448747 kvar=177.782158675189 vminpu=0.85
new load.load_48_C bus1=bus_48.3 Phases=1 kv=157.6864406779661 kw=1503.1787631724835 kvar=493.0426343205746 vminpu=0.85
new load.load_49_B bus1=bus_49.2 Phases=1 kv=157.6864406779661 kw=1719.6174552826806 kvar=564.0345253327192 vminpu=0.85
new load.load_49_C bus1=bus_49.3 Phases=1 kv=157.6864406779661 kw=139.6018426692955 kvar=45.789404395528926 vminpu=0.85
new load.load_50_B bus1=bus_50.2 Phases=1 kv=157.6864406779661 kw=897.2296832525985 kvar=294.2913361068523 vminpu=0.85
new load.load_50_C bus1=bus_50.3 Phases=1 kv=157.6864406779661 kw=1276.7419722719949 kvar=418.77136690521434 vminpu=0.85
new load.load_51_B bus1=bus_51.2 Phases=1 kv=157.6864406779661 kw=2407.833083115398 kvar=789.7692512618506 vminpu=0.85
new load.load_51_C bus1=bus_51.3 Phases=1 kv=157.6864406779661 kw=254.2201615340382 kvar=83.38421298316453 vminpu=0.85
new load.load_52_B bus1=bus_52.2 Phases=1 kv=157.6864406779661 kw=1887.7364570654995 kvar=619.1775579174839 vminpu=0.85
new load.load_52_C bus1=bus_52.3 Phases=1 kv=157.6864406779661 kw=459.8778487263868 kvar=150.83993438225488 vminpu=0.85
new load.load_53_B bus1=bus_53.2 Phases=1 kv=157.6864406779661 kw=856.5599620863735 kvar=280.95166756433053 vminpu=0.85
new load.load_53_C bus1=bus_53.3 Phases=1 kv=157.6864406779661 kw=1279.7023062136195 kvar=419.74235643806725 vminpu=0.85
new load.load_54_A bus1=bus_54.1 Phases=1 kv=157.6864406779661 kw=2351.1898874443164 kvar=771.1902830817357 vminpu=0.85
new load.load_55_B bus1=bus_55.2 Phases=1 kv=157.6864406779661 kw=2105.2447236756443 kvar=690.5202693656114 vminpu=0.85
new load.load_55_C bus1=bus_55.3 Phases=1 kv=157.6864406779661 kw=305.130129189501 kvar=100.08268237415633 vminpu=0.85
new load.load_56_B bus1=bus_56.2 Phases=1 kv=157.6864406779661 kw=1087.0255106432164 kvar=356.544367490975 vminpu=0.85
new load.load_56_C bus1=bus_56.3 Phases=1 kv=157.6864406779661 kw=1348.9209469128436 kvar=442.44607058741275 vminpu=0.85
new load.load_57_B bus1=bus_57.2 Phases=1 kv=157.6864406779661 kw=1276.2966955082095 kvar=418.6253161266927 vminpu=0.85
new load.load_57_C bus1=bus_57.3 Phases=1 kv=157.6864406779661 kw=1299.1578092367506 kvar=426.1237614296542 vminpu=0.85
new load.load_58_C bus1=bus_58.3 Phases=1 kv=157.6864406779661 kw=1414.3940008148038 kvar=463.9212322672557 vminpu=0.85
new load.load_59_C bus1=bus_59.3 Phases=1 kv=157.6864406779661 kw=1836.2750032752413 kvar=602.2982010742792 vminpu=0.85
new load.load_60_C bus1=bus_60.3 Phases=1 kv=157.6864406779661 kw=1679.528837912762 kvar=550.885458835386 vminpu=0.85
new load.load_61_A bus1=bus_61.1 Phases=1 kv=157.6864406779661 kw=2086.522905462956 kvar=684.3795129918495 vminpu=0.85
new load.load_62_B bus1=bus_62.2 Phases=1 kv=157.6864406779661 kw=2026.2278309634803 kvar=664.6027285560216 vminpu=0.85
new load.load_63_B bus1=bus_63.2 Phases=1 kv=157.6864406779661 kw=2154.962224061475 kvar=706.8276094921638 vminpu=0.85
new load.load_64_B bus1=bus_64.2 Phases=1 kv=157.6864406779661 kw=2509.039315637597 kvar=822.9648955291319 vminpu=0.85
new load.load_65_B bus1=bus_65.2 Phases=1 kv=157.6864406779661 kw=68.07836932402806 kvar=22.329705138281206 vminpu=0.85
new load.load_65_C bus1=bus_65.3 Phases=1 kv=157.6864406779661 kw=2329.218320942773 kvar=763.9836092692296 vminpu=0.85
new load.load_66_B bus1=bus_66.2 Phases=1 kv=157.6864406779661 kw=2169.9783473016278 kvar=711.7528979149339 vminpu=0.85
new load.load_66_C bus1=bus_66.3 Phases=1 kv=157.6864406779661 kw=37.49538111928153 kvar=12.298485007124343 vminpu=0.85
new load.load_67_A bus1=bus_67.1 Phases=1 kv=157.6864406779661 kw=1022.3936703993016 kvar=335.34512389097097 vminpu=0.85
new load.load_67_C bus1=bus_67.3 Phases=1 kv=157.6864406779661 kw=999.2373857327616 kvar=327.7498625203458 vminpu=0.85
new load.load_69_B bus1=bus_69.2 Phases=1 kv=157.6864406779661 kw=1130.299684075678 kvar=370.7382963768224 vminpu=0.85
new load.load_69_C bus1=bus_69.3 Phases=1 kv=157.6864406779661 kw=783.3275562159474 kvar=256.93143843883075 vminpu=0.85
new load.load_70_B bus1=bus_70.2 Phases=1 kv=157.6864406779661 kw=1198.8020123068063 kvar=393.20706003663247 vminpu=0.85
new load.load_70_C bus1=bus_70.3 Phases=1 kv=157.6864406779661 kw=1023.938156270594 kvar=335.85171525675486 vminpu=0.85
new load.load_71_B bus1=bus_71.2 Phases=1 kv=157.6864406779661 kw=1683.9901329995598 kvar=552.3487636238557 vminpu=0.85
new load.load_71_C bus1=bus_71.3 Phases=1 kv=157.6864406779661 kw=561.2667815856374 kvar=184.09550436008908 vminpu=0.85
new load.load_72_B bus1=bus_72.2 Phases=1 kv=157.6864406779661 kw=1149.8218139317903 kvar=377.14155496962724 vminpu=0.85
new load.load_72_C bus1=bus_72.3 Phases=1 kv=157.6864406779661 kw=810.5598583688367 kvar=265.8636335449784 vminpu=0.85
new load.load_73_B bus1=bus_73.2 Phases=1 kv=157.6864406779661 kw=2156.292687888492 kvar=707.2640016274254 vminpu=0.85
new load.load_73_C bus1=bus_73.3 Phases=1 kv=157.6864406779661 kw=216.6818999564432 kvar=71.07166318571338 vminpu=0.85
new load.load_74_A bus1=bus_74.1 Phases=1 kv=157.6864406779661 kw=1415.2743344007424 kvar=464.2099816834435 vminpu=0.85
new load.load_74_C bus1=bus_74.3 Phases=1 kv=157.6864406779661 kw=529.2487284347421 kvar=173.59358292659542 vminpu=0.85
new load.load_75_A bus1=bus_75.1 Phases=1 kv=157.6864406779661 kw=1299.3483678410062 kvar=426.18626465185 vminpu=0.85
new load.load_75_C bus1=bus_75.3 Phases=1 kv=157.6864406779661 kw=296.0617087792764 kvar=97.10824047960266 vminpu=0.85
new load.load_76_A bus1=bus_76.1 Phases=1 kv=157.6864406779661 kw=1300.891399381267 kvar=426.69237899705564 vminpu=0.85
new load.load_76_C bus1=bus_76.3 Phases=1 kv=157.6864406779661 kw=1083.1945283887867 kvar=355.28780531152205 vminpu=0.85
new load.load_77_A bus1=bus_77.1 Phases=1 kv=157.6864406779661 kw=441.1590965617239 kvar=144.70018367224546 vminpu=0.85
new load.load_77_C bus1=bus_77.3 Phases=1 kv=157.6864406779661 kw=1526.1913209517595 kvar=500.59075327217715 vminpu=0.85
new load.load_78_A bus1=bus_78.1 Phases=1 kv=157.6864406779661 kw=1138.5443400751835 kvar=373.4425435446602 vminpu=0.85
new load.load_78_C bus1=bus_78.3 Phases=1 kv=157.6864406779661 kw=704.6260878781105 kvar=231.11735682402025 vminpu=0.85
new load.load_79_A bus1=bus_79.1 Phases=1 kv=157.6864406779661 kw=1110.8508558726098 kvar=364.35908072621606 vminpu=0.85
new load.load_79_C bus1=bus_79.3 Phases=1 kv=157.6864406779661 kw=854.1936759502911 kvar=280.1755257116955 vminpu=0.85
new load.load_80_A bus1=bus_80.1 Phases=1 kv=157.6864406779661 kw=399.24334615104107 kvar=130.95181753754147 vminpu=0.85
new load.load_80_C bus1=bus_80.3 Phases=1 kv=157.6864406779661 kw=1875.846643943592 kvar=615.2776992134982 vminpu=0.85
new load.load_81_A bus1=bus_81.1 Phases=1 kv=157.6864406779661 kw=2.368327289455205 kvar=0.7768113509413073 vminpu=0.85
new load.load_81_C bus1=bus_81.3 Phases=1 kv=157.6864406779661 kw=1960.370257500354 kvar=643.0014444601161 vminpu=0.85
new load.load_82_B bus1=bus_82.2 Phases=1 kv=157.6864406779661 kw=2146.4500302090078 kvar=704.0356099085545 vminpu=0.85
new load.load_83_B bus1=bus_83.2 Phases=1 kv=157.6864406779661 kw=1975.9274840793505 kvar=648.104214778027 vminpu=0.85
new load.load_84_B bus1=bus_84.2 Phases=1 kv=157.6864406779661 kw=1306.4294012082116 kvar=428.50884359629345 vminpu=0.85
new load.load_85_B bus1=bus_85.2 Phases=1 kv=157.6864406779661 kw=1653.425060683045 kvar=542.3234199040388 vminpu=0.85
new load.load_86_B bus1=bus_86.2 Phases=1 kv=157.6864406779661 kw=2235.245992218803 kvar=733.1606854477675 vminpu=0.85
new load.load_87_B bus1=bus_87.2 Phases=1 kv=157.6864406779661 kw=1892.4091452925404 kvar=620.7101996559533 vminpu=0.85
new load.load_88_B bus1=bus_88.2 Phases=1 kv=157.6864406779661 kw=1626.1154383648725 kvar=533.3658637836782 vminpu=0.85
new load.load_89_B bus1=bus_89.2 Phases=1 kv=157.6864406779661 kw=2148.196129256704 kvar=704.6083303961989 vminpu=0.85
new load.load_90_B bus1=bus_90.2 Phases=1 kv=157.6864406779661 kw=1819.215127241692 kvar=596.702561735275 vminpu=0.85
new load.load_91_B bus1=bus_91.2 Phases=1 kv=157.6864406779661 kw=1276.615117954222 kvar=418.7297586889848 vminpu=0.85
new load.load_92_B bus1=bus_92.2 Phases=1 kv=157.6864406779661 kw=2201.584090869254 kvar=722.1195818051153 vminpu=0.85
new load.load_93_B bus1=bus_93.2 Phases=1 kv=157.6864406779661 kw=2158.8159576368653 kvar=708.0916341048918 vminpu=0.85
new load.load_94_A bus1=bus_94.1 Phases=1 kv=157.6864406779661 kw=574.8995878957148 kvar=188.56706482979448 vminpu=0.85
new load.load_94_C bus1=bus_94.3 Phases=1 kv=157.6864406779661 kw=1896.300657541227 kvar=621.9866156735225 vminpu=0.85
new load.load_95_A bus1=bus_95.1 Phases=1 kv=157.6864406779661 kw=644.5141227652649 kvar=211.4006322670069 vminpu=0.85
new load.load_95_C bus1=bus_95.3 Phases=1 kv=157.6864406779661 kw=1487.33485686222 kvar=487.8458330508082 vminpu=0.85
new load.load_96_A bus1=bus_96.1 Phases=1 kv=157.6864406779661 kw=1238.9036138195931 kvar=406.3603853328266 vminpu=0.85
new load.load_96_C bus1=bus_96.3 Phases=1 kv=157.6864406779661 kw=448.64763851106096 kvar=147.156425431628 vminpu=0.85
new load.load_97_A bus1=bus_97.1 Phases=1 kv=157.6864406779661 kw=1245.9178062713538 kvar=408.66104045700405 vminpu=0.85
new load.load_97_C bus1=bus_97.3 Phases=1 kv=157.6864406779661 kw=745.4059814547453 kvar=244.49316191715647 vminpu=0.85
new load.load_98_A bus1=bus_98.1 Phases=1 kv=157.6864406779661 kw=460.0910743481912 kvar=150.90987238620673 vminpu=0.85
new load.load_98_C bus1=bus_98.3 Phases=1 kv=157.6864406779661 kw=1898.1960183779763 kvar=622.6082940279763 vminpu=0.85
new load.load_99_A bus1=bus_99.1 Phases=1 kv=157.6864406779661 kw=1853.4691592762736 kvar=607.9378842426178 vminpu=0.85
new load.load_99_C bus1=bus_99.3 Phases=1 kv=157.6864406779661 kw=399.46968425475023 kvar=131.02605643555808 vminpu=0.85
new load.load_100_A bus1=bus_100.1 Phases=1 kv=157.6864406779661 kw=964.8461198491063 kvar=316.4695273105069 vminpu=0.85
new load.load_100_C bus1=bus_100.3 Phases=1 kv=157.6864406779661 kw=1367.4957120639249 kvar=448.5385935569674 vminpu=0.85
new load.load_101_B bus1=bus_101.2 Phases=1 kv=157.6864406779661 kw=2189.327898333337 kvar=718.0995506533346 vminpu=0.85
new load.load_102_C bus1=bus_102.3 Phases=1 kv=157.6864406779661 kw=2093.198977407693 kvar=686.5692645897233 vminpu=0.85
new load.load_103_A bus1=bus_103.1 Phases=1 kv=157.6864406779661 kw=1548.5894969029891 kvar=507.93735498418044 vminpu=0.85
new load.load_103_C bus1=bus_103.3 Phases=1 kv=157.6864406779661 kw=901.071393233619 kvar=295.55141698062704 vminpu=0.85
new load.load_104_C bus1=bus_104.3 Phases=1 kv=157.6864406779661 kw=2015.7661726852127 kvar=661.1713046407498 vminpu=0.85
new load.load_105_B bus1=bus_105.2 Phases=1 kv=157.6864406779661 kw=1907.6067888019527 kvar=625.6950267270405 vminpu=0.85
new load.load_106_B bus1=bus_106.2 Phases=1 kv=157.6864406779661 kw=2851.303585763572 kvar=935.2275761304516 vminpu=0.85
new load.load_107_C bus1=bus_107.3 Phases=1 kv=157.6864406779661 kw=1678.7123023081729 kvar=550.6176351570807 vminpu=0.85
new load.load_108_C bus1=bus_108.3 Phases=1 kv=157.6864406779661 kw=1867.1941331949772 kvar=612.4396756879526 vminpu=0.85
new load.load_109_C bus1=bus_109.3 Phases=1 kv=157.6864406779661 kw=1523.6393886178212 kvar=499.75371946664535 vminpu=0.85
new load.load_110_C bus1=bus_110.3 Phases=1 kv=157.6864406779661 kw=2721.8524951417994 kvar=892.7676184065102 vminpu=0.85
new load.load_111_C bus1=bus_111.3 Phases=1 kv=157.6864406779661 kw=1109.920635994754 kvar=364.05396860627934 vminpu=0.85
new load.load_112_B bus1=bus_112.2 Phases=1 kv=157.6864406779661 kw=1730.794800773135 kvar=567.7006946535882 vminpu=0.85
new load.load_112_C bus1=bus_112.3 Phases=1 kv=157.6864406779661 kw=273.1798005246815 kvar=89.60297457209555 vminpu=0.85
new load.load_113_B bus1=bus_113.2 Phases=1 kv=157.6864406779661 kw=2218.608592471937 kvar=727.7036183307953 vminpu=0.85
new load.load_113_C bus1=bus_113.3 Phases=1 kv=157.6864406779661 kw=449.6704853272835 kvar=147.491919187349 vminpu=0.85
new load.load_114_C bus1=bus_114.3 Phases=1 kv=157.6864406779661 kw=2032.9822793551036 kvar=666.818187628474 vminpu=0.85
new load.load_115_A bus1=bus_115.1 Phases=1 kv=157.6864406779661 kw=552.3170032840248 kvar=181.15997707716016 vminpu=0.85
new load.load_115_C bus1=bus_115.3 Phases=1 kv=157.6864406779661 kw=885.8340691463933 kvar=290.553574680017 vminpu=0.85
new load.load_116_B bus1=bus_116.2 Phases=1 kv=157.6864406779661 kw=2441.541749265223 kvar=800.8256937589932 vminpu=0.85
new load.load_117_A bus1=bus_117.1 Phases=1 kv=157.6864406779661 kw=14.137919127885 kvar=4.63723747394628 vminpu=0.85
new load.load_117_C bus1=bus_117.3 Phases=1 kv=157.6864406779661 kw=1478.178466236733 kvar=484.8425369256484 vminpu=0.85

!---------------- SOLUTION ----------------

set controlmode=off
Set Voltagebases=[157.6864406779661]
calcv
Solve